/BATCH
/PREP7
ET,1,SOLID186
MP,EX,1,2.1e11
BLOCK,0,1,0,1,0,1
ESIZE,0.1
VMESH,ALL
NSEL,S,LOC,X,0
D,ALL,UX,0
ALLSEL
FINISH
/SOLUTION
ANTYPE,STATIC
SOLVE
FINISH
/POST1
SET,FIRST
PLNSOL,U,SUM
FINISH
